<?xml version="1.0" encoding="UTF-8"?>

<!-- generated on 2025-11-18 16:31:09 by Eclipse SUMO netedit Version 1.24.0
<neteditConfiguration xmlns:xsi="http://www.w3.org/2001/XMLSchema-instance" xsi:noNamespaceSchemaLocation="http://sumo.dlr.de/xsd/neteditConfiguration.xsd">

    <input>
        <sumo-net-file value="C:\Users\User\Desktop\SUMO\vci.net.xml"/>
    </input>

    <output>
        <output-file value="C:\Users\User\Desktop\SUMO\vci.net.xml"/>
    </output>

    <processing>
        <geometry.min-radius.fix.railways value="false"/>
        <geometry.avoid-overlap value="false"/>
        <geometry.max-grade.fix value="false"/>
        <offset.disable-normalization value="true"/>
        <lefthand value="0"/>
    </processing>

    <junctions>
        <no-turnarounds value="true"/>
        <junctions.corner-detail value="0"/>
        <junctions.limit-turn-speed value="-1.00"/>
        <rectangular-lane-cut value="0"/>
    </junctions>

    <pedestrian>
        <walkingareas value="0"/>
    </pedestrian>

</neteditConfiguration>
-->

<net version="1.20" avoidOverlap="0" xmlns:xsi="http://www.w3.org/2001/XMLSchema-instance" xsi:noNamespaceSchemaLocation="http://sumo.dlr.de/xsd/net_file.xsd">

    <location netOffset="-526017.24,-4547308.05" convBoundary="3395.47,0.00,10470.04,12219.96" origBoundary="-8.689824,41.076258,-8.546796,41.192513" projParameter="+proj=utm +zone=29 +ellps=WGS84 +datum=WGS84 +units=m +no_defs"/>

    <edge id=":100129_0" function="internal">
        <lane id=":100129_0_0" index="0" speed="18.05" length="39.81" shape="9025.73,6577.13 9020.27,6569.97 9013.50,6561.54 9006.44,6553.38 9000.10,6547.02"/>
        <lane id=":100129_0_1" index="1" speed="18.05" length="39.81" shape="9028.16,6575.03 9022.65,6567.82 9015.77,6559.28 9008.60,6551.02 9002.21,6544.61"/>
    </edge>
    <edge id=":100129_2" function="internal">
        <lane id=":100129_2_0" index="0" speed="25.00" length="39.38" shape="9030.45,6572.46 9000.10,6547.02"/>
        <lane id=":100129_2_1" index="1" speed="25.00" length="39.38" shape="9032.24,6569.74 9002.21,6544.61"/>
    </edge>
    <edge id=":101187_0" function="internal">
        <lane id=":101187_0_0" index="0" speed="33.33" length="0.25" shape="10391.90,3195.26 10391.84,3195.07"/>
        <lane id=":101187_0_1" index="1" speed="33.33" length="0.25" shape="10394.94,3194.26 10394.85,3193.98"/>
    </edge>
    <edge id=":1026268_0" function="internal">
        <lane id=":1026268_0_0" index="0" speed="25.00" length="8.24" shape="9451.97,6516.22 9450.82,6518.47 9450.71,6520.37 9450.59,6522.26 9449.39,6524.47"/>
        <lane id=":1026268_0_1" index="1" speed="25.00" length="8.24" shape="9451.97,6516.22 9446.93,6522.42"/>
        <lane id=":1026268_0_2" index="2" speed="25.00" length="8.24" shape="9449.46,6514.24 9444.48,6520.38"/>
    </edge>
    <edge id=":1029780_0" function="internal">
        <lane id=":1029780_0_0" index="0" speed="26.39" length="0.10" shape="9536.35,6344.72 9536.32,6344.85"/>
        <lane id=":1029780_0_1" index="1" speed="26.39" length="0.10" shape="9533.24,6343.98 9533.23,6344.02"/>
    </edge>
    <edge id=":1032501_0" function="internal">
        <lane id=":1032501_0_0" index="0" speed="25.00" length="0.30" shape="4168.47,10252.55 4168.26,10252.35"/>
        <lane id=":1032501_0_1" index="1" speed="25.00" length="0.30" shape="4170.70,10250.25 4170.49,10250.05"/>
        <lane id=":1032501_0_2" index="2" speed="25.00" length="0.30" shape="4172.93,10247.96 4172.71,10247.74"/>
    </edge>
    <edge id=":108336_0" function="internal">
        <lane id=":108336_0_0" index="0" speed="25.00" length="0.29" shape="5865.91,5077.44 5865.61,5077.34"/>
        <lane id=":108336_0_1" index="1" speed="25.00" length="0.29" shape="5866.84,5074.37 5866.59,5074.30"/>
    </edge>
    <edge id=":108853_0" function="internal">
        <lane id=":108853_0_0" index="0" speed="25.00" length="0.29" shape="8321.56,6064.21 8321.47,6064.11 8321.41,6064.04 8321.36,6063.97 8321.28,6063.87"/>
        <lane id=":108853_0_1" index="1" speed="25.00" length="0.29" shape="8323.93,6062.06 8323.90,6062.02 8323.88,6062.00 8323.86,6061.98 8323.83,6061.94"/>
    </edge>
    <edge id=":109014_0" function="internal">
        <lane id=":109014_0_0" index="0" speed="25.00" length="0.37" shape="5816.96,5040.78 5817.01,5040.81 5817.04,5040.82 5817.08,5040.84 5817.13,5040.85"/>
        <lane id=":109014_0_1" index="1" speed="25.00" length="0.37" shape="5815.51,5043.64 5815.66,5043.71 5815.76,5043.76 5815.87,5043.80 5816.02,5043.86"/>
    </edge>
    <edge id=":109082_0" function="internal">
        <lane id=":109082_0_0" index="0" speed="25.00" length="0.30" shape="4577.97,5798.08 4577.98,5798.38"/>
        <lane id=":109082_0_1" index="1" speed="25.00" length="0.30" shape="4574.77,5798.18 4574.78,5798.48"/>
        <lane id=":109082_0_2" index="2" speed="25.00" length="0.30" shape="4571.57,5798.29 4571.58,5798.59"/>
    </edge>
    <edge id=":11055_0" function="internal">
        <lane id=":11055_0_0" index="0" speed="18.05" length="18.48" shape="9104.53,9569.90 9105.30,9566.19 9106.28,9562.22 9106.69,9557.54 9105.71,9551.72"/>
    </edge>
    <edge id=":11055_1" function="internal">
        <lane id=":11055_1_0" index="0" speed="25.00" length="18.20" shape="9107.90,9569.08 9108.48,9563.60 9109.38,9559.80 9109.76,9556.08 9108.78,9550.81"/>
        <lane id=":11055_1_1" index="1" speed="25.00" length="18.20" shape="9111.13,9567.87 9111.67,9562.48 9112.51,9558.75 9112.84,9555.08 9111.85,9549.90"/>
        <lane id=":11055_1_2" index="2" speed="25.00" length="18.20" shape="9114.35,9566.66 9114.87,9561.36 9115.64,9557.69 9115.91,9554.09 9114.92,9548.99"/>
    </edge>
    <edge id=":110708_0" function="internal">
        <lane id=":110708_0_0" index="0" speed="18.05" length="3.38" shape="8994.13,6494.62 8994.85,6494.87 8995.34,6495.02 8995.85,6495.16 8996.59,6495.33"/>
        <lane id=":110708_0_1" index="1" speed="18.05" length="3.38" shape="8994.13,6494.62 8995.85,6498.45"/>
    </edge>
    <edge id=":110708_2" function="internal">
        <lane id=":110708_2_0" index="0" speed="22.22" length="2.73" shape="8994.13,6494.62 8996.56,6495.45"/>
        <lane id=":110708_2_1" index="1" speed="22.22" length="2.73" shape="8993.09,6497.65 8995.82,6498.57"/>
    </edge>
    <edge id=":114274_0" function="internal">
        <lane id=":114274_0_0" index="0" speed="23.61" length="8.68" shape="3778.15,8667.73 3776.95,8669.86 3775.46,8670.96 3774.01,8672.07 3772.91,8674.23"/>
        <lane id=":114274_0_1" index="1" speed="23.61" length="8.68" shape="3775.10,8666.76 3773.89,8668.93 3772.39,8670.06 3770.93,8671.20 3769.82,8673.40"/>
        <lane id=":114274_0_2" index="2" speed="23.61" length="8.68" shape="3772.05,8665.79 3770.83,8668.00 3769.32,8669.16 3767.85,8670.33 3766.73,8672.57"/>
    </edge>
    <edge id=":123014_0" function="internal">
        <lane id=":123014_0_0" index="0" speed="25.00" length="0.10" shape="7264.19,5603.27 7264.20,5603.27"/>
        <lane id=":123014_0_1" index="1" speed="25.00" length="0.10" shape="7265.59,5600.39 7265.59,5600.39"/>
    </edge>
    <edge id=":123952_0" function="internal">
        <lane id=":123952_0_0" index="0" speed="22.22" length="0.30" shape="7290.90,5594.72 7291.17,5594.84"/>
        <lane id=":123952_0_1" index="1" speed="22.22" length="0.30" shape="7289.60,5597.65 7289.88,5597.77"/>
    </edge>
    <edge id=":123973_0" function="internal">
        <lane id=":123973_0_0" index="0" speed="13.89" length="8.70" shape="5161.15,4530.36 5158.68,4530.45 5156.97,4529.72 5155.25,4528.95 5152.76,4528.91"/>
    </edge>
    <edge id=":124075_0" function="internal">
        <lane id=":124075_0_0" index="0" speed="25.00" length="0.19" shape="8143.69,5841.31 8143.62,5841.25"/>
        <lane id=":124075_0_1" index="1" speed="25.00" length="0.19" shape="8145.95,5839.04 8145.74,5838.84"/>
    </edge>
    <edge id=":124300_0" function="internal">
        <lane id=":124300_0_0" index="0" speed="22.22" length="0.33" shape="6721.58,5297.32 6721.71,5297.39 6721.79,5297.44 6721.88,5297.49 6722.00,5297.57"/>
        <lane id=":124300_0_1" index="1" speed="22.22" length="0.33" shape="6720.11,5300.17 6720.16,5300.19 6720.18,5300.21 6720.21,5300.22 6720.25,5300.25"/>
    </edge>
    <edge id=":125712_0" function="internal">
        <lane id=":125712_0_0" index="0" speed="25.00" length="0.26" shape="8192.49,5889.76 8192.36,5889.62"/>
        <lane id=":125712_0_1" index="1" speed="25.00" length="0.26" shape="8194.85,5887.59 8194.62,5887.35"/>
    </edge>
    <edge id=":12622_0" function="internal">
        <lane id=":12622_0_0" index="0" speed="22.22" length="47.42" shape="5332.07,4068.31 5334.98,4020.98"/>
        <lane id=":12622_0_1" index="1" speed="22.22" length="47.42" shape="5335.27,4068.29 5338.18,4020.95"/>
    </edge>
    <edge id=":12622_2" function="internal">
        <lane id=":12622_2_0" index="0" speed="20.84" length="47.57" shape="5327.95,4067.99 5329.54,4059.99 5331.92,4046.41 5334.08,4031.86 5334.98,4020.98"/>
    </edge>
    <edge id=":126747_0" function="internal">
        <lane id=":126747_0_0" index="0" speed="25.00" length="0.30" shape="4572.22,5620.93 4572.23,5621.24"/>
        <lane id=":126747_0_1" index="1" speed="25.00" length="0.30" shape="4569.02,5621.04 4569.03,5621.34"/>
        <lane id=":126747_0_2" index="2" speed="25.00" length="0.30" shape="4565.82,5621.15 4565.83,5621.44"/>
    </edge>
    <edge id=":127875_0" function="internal">
        <lane id=":127875_0_0" index="0" speed="26.39" length="0.29" shape="8525.56,6195.25 8525.78,6195.40"/>
        <lane id=":127875_0_1" index="1" speed="26.39" length="0.29" shape="8523.73,6197.87 8523.99,6198.05"/>
    </edge>
    <edge id=":129089_0" function="internal">
        <lane id=":129089_0_0" index="0" speed="18.05" length="45.70" shape="9397.53,6578.74 9364.18,6609.99"/>
        <lane id=":129089_0_1" index="1" speed="18.05" length="46.61" shape="9395.32,6576.43 9361.27,6608.26"/>
    </edge>
    <edge id=":129089_2" function="internal">
        <lane id=":129089_2_0" index="0" speed="25.00" length="47.07" shape="9395.32,6576.43 9386.13,6584.57 9375.88,6592.82 9366.18,6600.28 9358.64,6606.02"/>
        <lane id=":129089_2_1" index="1" speed="25.00" length="47.07" shape="9393.11,6574.12 9383.94,6582.24 9373.73,6590.45 9364.07,6597.87 9356.55,6603.59"/>
    </edge>
    <edge id=":131629_0" function="internal">
        <lane id=":131629_0_0" index="0" speed="25.00" length="0.30" shape="4549.32,5790.28 4549.31,5789.99"/>
        <lane id=":131629_0_1" index="1" speed="25.00" length="0.30" shape="4552.52,5790.18 4552.51,5789.88"/>
        <lane id=":131629_0_2" index="2" speed="25.00" length="0.30" shape="4555.72,5790.07 4555.71,5789.77"/>
    </edge>
    <edge id=":133532_0" function="internal">
        <lane id=":133532_0_0" index="0" speed="27.78" length="0.25" shape="8171.99,5834.51 8172.26,5834.78"/>
        <lane id=":133532_0_1" index="1" speed="27.78" length="0.25" shape="8169.83,5836.87 8169.92,5836.96"/>
    </edge>
    <edge id=":135155_0" function="internal">
        <lane id=":135155_0_0" index="0" speed="12.50" length="33.13" shape="5333.19,4272.95 5333.96,4263.05 5332.55,4254.95 5329.79,4247.94 5326.48,4241.27"/>
        <lane id=":135155_0_1" index="1" speed="12.50" length="32.69" shape="5333.19,4272.95 5334.50,4263.02 5334.28,4254.85 5332.72,4247.77 5329.95,4241.08"/>
    </edge>
    <edge id=":135155_2" function="internal">
        <lane id=":135155_2_0" index="0" speed="16.66" length="32.57" shape="5333.19,4272.95 5334.61,4263.81 5335.01,4256.94 5335.02,4250.03 5335.22,4240.75"/>
        <lane id=":135155_2_1" index="1" speed="16.66" length="32.57" shape="5336.34,4273.55 5337.76,4264.38 5338.18,4257.43 5338.20,4250.43 5338.41,4241.11"/>
        <lane id=":135155_2_2" index="2" speed="16.66" length="32.57" shape="5339.48,4274.15 5340.90,4264.94 5341.34,4257.91 5341.38,4250.83 5341.60,4241.47"/>
    </edge>
    <edge id=":1365_0" function="internal">
        <lane id=":1365_0_0" index="0" speed="25.00" length="7.73" shape="9139.09,9555.92 9138.85,9563.86"/>
        <lane id=":1365_0_1" index="1" speed="25.00" length="7.73" shape="9135.89,9555.92 9135.66,9563.65"/>
        <lane id=":1365_0_2" index="2" speed="25.00" length="7.73" shape="9132.69,9555.93 9132.46,9563.45"/>
    </edge>
    <edge id=":137194_0" function="internal">
        <lane id=":137194_0_0" index="0" speed="13.89" length="8.09" shape="5336.41,4431.50 5334.80,4433.36 5334.24,4435.14 5333.65,4436.86 5331.93,4438.57"/>
        <lane id=":137194_0_1" index="1" speed="13.89" length="8.09" shape="5336.41,4431.50 5330.19,4435.89"/>
    </edge>
    <edge id=":13826_0" function="internal">
        <lane id=":13826_0_0" index="0" speed="25.00" length="0.31" shape="3540.57,9118.82 3540.69,9118.63"/>
        <lane id=":13826_0_1" index="1" speed="25.00" length="0.31" shape="3543.27,9120.53 3543.44,9120.27"/>
        <lane id=":13826_0_2" index="2" speed="25.00" length="0.31" shape="3545.98,9122.25 3546.19,9121.90"/>
    </edge>
    <edge id=":139000_0" function="internal">
        <lane id=":139000_0_0" index="0" speed="25.00" length="16.94" shape="5379.27,4321.69 5379.76,4326.64 5379.45,4330.10 5379.21,4333.55 5379.91,4338.46"/>
        <lane id=":139000_0_1" index="1" speed="25.00" length="16.94" shape="5376.13,4322.28 5376.62,4327.28 5376.32,4330.77 5376.09,4334.25 5376.79,4339.20"/>
    </edge>
    <edge id=":139000_2" function="internal">
        <lane id=":139000_2_0" index="0" speed="19.45" length="16.78" shape="5372.98,4322.88 5373.66,4328.26 5373.65,4332.45 5373.39,4336.04 5373.33,4339.61"/>
    </edge>
    <edge id=":139446_0" function="internal">
        <lane id=":139446_0_0" index="0" speed="25.00" length="0.30" shape="7753.14,5715.44 7752.84,5715.43"/>
        <lane id=":139446_0_1" index="1" speed="25.00" length="0.30" shape="7753.26,5712.24 7752.95,5712.23"/>
    </edge>
    <edge id=":140968_0" function="internal">
        <lane id=":140968_0_0" index="0" speed="30.55" length="0.10" shape="9762.46,5438.46 9762.43,5438.57"/>
        <lane id=":140968_0_1" index="1" speed="30.55" length="0.10" shape="9759.35,5437.71 9759.34,5437.75"/>
    </edge>
    <edge id=":141513_0" function="internal">
        <lane id=":141513_0_0" index="0" speed="22.22" length="0.29" shape="6710.97,5317.51 6710.70,5317.37"/>
        <lane id=":141513_0_1" index="1" speed="22.22" length="0.29" shape="6712.42,5314.66 6712.19,5314.54"/>
    </edge>
    <edge id=":144565_0" function="internal">
        <lane id=":144565_0_0" index="0" speed="22.22" length="0.11" shape="6274.23,5143.83 6274.07,5143.81"/>
        <lane id=":144565_0_1" index="1" speed="22.22" length="0.11" shape="6274.60,5140.65 6274.55,5140.64"/>
    </edge>
    <edge id=":148529_0" function="internal">
        <lane id=":148529_0_0" index="0" speed="25.00" length="8.27" shape="9737.56,5436.62 9737.66,5434.11 9736.97,5432.34 9736.28,5430.58 9736.40,5428.07"/>
        <lane id=":148529_0_1" index="1" speed="25.00" length="8.27" shape="9737.56,5436.62 9739.50,5428.86"/>
        <lane id=":148529_0_2" index="2" speed="25.00" length="8.27" shape="9740.67,5437.38 9742.60,5429.65"/>
    </edge>
    <edge id=":1496_0" function="internal">
        <lane id=":1496_0_0" index="0" speed="22.22" length="0.30" shape="3974.27,8373.67 3974.04,8373.86"/>
        <lane id=":1496_0_1" index="1" speed="22.22" length="0.30" shape="3972.18,8371.25 3971.95,8371.44"/>
        <lane id=":1496_0_2" index="2" speed="22.22" length="0.30" shape="3970.09,8368.82 3969.86,8369.02"/>
    </edge>
    <edge id=":153967_0" function="internal">
        <lane id=":153967_0_0" index="0" speed="25.00" length="0.37" shape="3991.85,8317.31 3991.95,8317.23"/>
        <lane id=":153967_0_1" index="1" speed="25.00" length="0.37" shape="3993.86,8319.80 3994.14,8319.56"/>
        <lane id=":153967_0_2" index="2" speed="25.00" length="0.37" shape="3995.87,8322.30 3996.33,8321.89"/>
    </edge>
    <edge id=":153991_0" function="internal">
        <lane id=":153991_0_0" index="0" speed="26.39" length="8.20" shape="5337.12,3692.40 5336.64,3689.92 5335.57,3688.35 5334.53,3686.78 5334.15,3684.30"/>
        <lane id=":153991_0_1" index="1" speed="26.39" length="8.20" shape="5337.12,3692.40 5337.35,3684.46"/>
        <lane id=":153991_0_2" index="2" speed="26.39" length="8.20" shape="5340.32,3692.43 5340.54,3684.61"/>
    </edge>
    <edge id=":15446_0" function="internal">
        <lane id=":15446_0_0" index="0" speed="25.00" length="11.71" shape="9144.15,6960.35 9144.76,6956.98 9145.80,6954.78 9146.84,6952.59 9147.47,6949.22"/>
        <lane id=":15446_0_1" index="1" speed="25.00" length="12.78" shape="9147.34,6960.54 9147.98,6956.85 9149.03,6954.42 9150.08,6952.00 9150.73,6948.31"/>
    </edge>
    <edge id=":15446_2" function="internal">
        <lane id=":15446_2_0" index="0" speed="25.00" length="12.49" shape="9150.54,6960.74 9151.00,6956.96 9151.81,6954.46 9152.98,6952.04 9154.53,6948.50"/>
        <lane id=":15446_2_1" index="1" speed="25.00" length="12.49" shape="9153.73,6960.93 9154.17,6957.44 9154.96,6955.15 9156.07,6952.92 9157.51,6949.65"/>
    </edge>
    <edge id=":154711_0" function="internal">
        <lane id=":154711_0_0" index="0" speed="25.00" length="0.30" shape="5539.51,4788.08 5539.66,4788.34"/>
        <lane id=":154711_0_1" index="1" speed="25.00" length="0.30" shape="5536.74,4789.69 5536.89,4789.95"/>
    </edge>
    <edge id=":155787_0" function="internal">
        <lane id=":155787_0_0" index="0" speed="26.39" length="0.31" shape="5307.69,4325.81 5307.64,4325.83 5307.61,4325.84 5307.58,4325.85 5307.54,4325.86"/>
        <lane id=":155787_0_1" index="1" speed="26.39" length="0.31" shape="5306.83,4322.73 5306.70,4322.77 5306.61,4322.79 5306.52,4322.83 5306.39,4322.88"/>
    </edge>
    <edge id=":155942_0" function="internal">
        <lane id=":155942_0_0" index="0" speed="23.61" length="0.29" shape="6732.81,5328.60 6732.58,5328.48"/>
        <lane id=":155942_0_1" index="1" speed="23.61" length="0.29" shape="6734.30,5325.77 6734.03,5325.63"/>
    </edge>
    <edge id=":16080_0" function="internal">
        <lane id=":16080_0_0" index="0" speed="25.00" length="7.53" shape="9236.20,8333.82 9237.56,8332.23 9238.45,8331.12 9239.30,8329.97 9240.49,8328.26"/>
        <lane id=":16080_0_1" index="1" speed="25.00" length="7.53" shape="9238.63,8335.90 9240.05,8334.24 9240.99,8333.08 9241.87,8331.87 9243.12,8330.08"/>
        <lane id=":16080_0_2" index="2" speed="25.00" length="7.53" shape="9241.05,8337.99 9242.54,8336.25 9243.52,8335.04 9244.45,8333.78 9245.75,8331.90"/>
        <lane id=":16080_0_3" index="3" speed="25.00" length="7.53" shape="9243.48,8340.08 9245.03,8338.26 9246.06,8337.00 9247.02,8335.68 9248.38,8333.72"/>
    </edge>
    <edge id=":16974_0" function="internal">
        <lane id=":16974_0_0" index="0" speed="25.00" length="9.73" shape="9018.72,9906.57 9018.21,9909.74 9018.47,9912.08 9018.51,9914.32 9017.34,9917.19"/>
        <lane id=":16974_0_1" index="1" speed="25.00" length="9.73" shape="9015.67,9905.59 9015.23,9908.55 9015.55,9910.74 9015.66,9912.84 9014.61,9915.52"/>
        <lane id=":16974_0_2" index="2" speed="25.00" length="9.73" shape="9012.63,9904.61 9012.25,9907.36 9012.63,9909.40 9012.82,9911.36 9011.89,9913.85"/>
        <lane id=":16974_0_3" index="3" speed="25.00" length="9.73" shape="9012.63,9904.61 9011.85,9906.97 9011.23,9908.55 9010.44,9910.05 9009.16,9912.18"/>
    </edge>
    <edge id=":172300_0" function="internal">
        <lane id=":172300_0_0" index="0" speed="25.00" length="0.10" shape="5624.35,4906.56 5624.44,4906.66"/>
        <lane id=":172300_0_1" index="1" speed="25.00" length="0.10" shape="5621.99,4908.72 5622.02,4908.75"/>
    </edge>
    <edge id=":176483_0" function="internal">
        <lane id=":176483_0_0" index="0" speed="25.00" length="0.41" shape="7127.08,3545.24 7127.18,3545.08 7127.25,3544.98 7127.32,3544.88 7127.44,3544.74"/>
        <lane id=":176483_0_1" index="1" speed="25.00" length="0.41" shape="7129.78,3546.95 7129.81,3546.90 7129.84,3546.87 7129.86,3546.83 7129.90,3546.79"/>
    </edge>
    <edge id=":176493_0" function="internal">
        <lane id=":176493_0_0" index="0" speed="27.78" length="0.40" shape="8346.74,6053.58 8346.86,6053.71 8346.95,6053.80 8347.02,6053.89 8347.13,6054.03"/>
        <lane id=":176493_0_1" index="1" speed="27.78" length="0.40" shape="8344.46,6055.83 8344.50,6055.87 8344.53,6055.90 8344.55,6055.93 8344.59,6055.98"/>
    </edge>
    <edge id=":17701_0" function="internal">
        <lane id=":17701_0_0" index="0" speed="25.00" length="0.13" shape="5080.65,10655.01 5080.86,10655.08"/>
        <lane id=":17701_0_1" index="1" speed="25.00" length="0.13" shape="5079.75,10658.08 5079.88,10658.12"/>
        <lane id=":17701_0_2" index="2" speed="25.00" length="0.13" shape="5078.86,10661.15 5078.90,10661.17"/>
    </edge>
    <edge id=":180519_0" function="internal">
        <lane id=":180519_0_0" index="0" speed="25.00" length="1.69" shape="7160.65,3530.49 7163.28,3532.34"/>
        <lane id=":180519_0_1" index="1" speed="25.00" length="1.69" shape="7160.65,3530.49 7160.63,3530.53 7160.62,3530.56 7160.60,3530.59 7160.57,3530.63"/>
    </edge>
    <edge id=":181007_0" function="internal">
        <lane id=":181007_0_0" index="0" speed="22.23" length="0.10" shape="5459.65,4678.35 5459.65,4678.35"/>
        <lane id=":181007_0_1" index="1" speed="22.23" length="0.10" shape="5462.55,4677.00 5462.55,4677.00"/>
    </edge>
    <edge id=":183628_0" function="internal">
        <lane id=":183628_0_0" index="0" speed="25.00" length="0.26" shape="7432.54,5653.18 7432.67,5653.22"/>
        <lane id=":183628_0_1" index="1" speed="25.00" length="0.26" shape="7431.47,5656.20 7431.83,5656.31"/>
    </edge>
    <edge id=":184535_0" function="internal">
        <lane id=":184535_0_0" index="0" speed="27.78" length="0.48" shape="5631.72,4948.45 5631.55,4948.32 5631.43,4948.23 5631.33,4948.13 5631.18,4947.97"/>
        <lane id=":184535_0_1" index="1" speed="27.78" length="0.48" shape="5633.64,4945.89 5633.58,4945.85 5633.54,4945.82 5633.51,4945.78 5633.46,4945.73"/>
    </edge>
    <edge id=":185183_0" function="internal">
        <lane id=":185183_0_0" index="0" speed="25.00" length="0.20" shape="5475.96,4652.43 5476.00,4652.53"/>
        <lane id=":185183_0_1" index="1" speed="25.00" length="0.20" shape="5472.94,4653.47 5473.05,4653.75"/>
    </edge>
    <edge id=":185610_0" function="internal">
        <lane id=":185610_0_0" index="0" speed="23.61" length="0.32" shape="6333.21,5131.23 6333.35,5131.25 6333.45,5131.26 6333.55,5131.28 6333.69,5131.32"/>
        <lane id=":185610_0_1" index="1" speed="23.61" length="0.32" shape="6332.76,5134.40 6332.81,5134.40 6332.84,5134.41 6332.88,5134.41 6332.92,5134.43"/>
    </edge>
    <edge id=":189018_0" function="internal">
        <lane id=":189018_0_0" index="0" speed="25.00" length="7.90" shape="4631.02,4787.27 4632.64,4785.70 4634.31,4785.24 4636.06,4784.85 4637.95,4783.49"/>
        <lane id=":189018_0_1" index="1" speed="25.00" length="7.90" shape="4633.69,4789.03 4635.24,4787.57 4636.84,4787.20 4638.53,4786.89 4640.33,4785.62"/>
    </edge>
    <edge id=":189071_0" function="internal">
        <lane id=":189071_0_0" index="0" speed="25.00" length="8.61" shape="5890.10,10782.72 5892.37,10783.54 5893.69,10784.81 5895.02,10786.04 5897.31,10786.72"/>
        <lane id=":189071_0_1" index="1" speed="25.00" length="8.61" shape="5889.66,10785.89 5891.99,10786.71 5893.35,10787.99 5894.72,10789.22 5897.06,10789.91"/>
        <lane id=":189071_0_2" index="2" speed="25.00" length="8.61" shape="5889.23,10789.06 5891.60,10789.89 5893.01,10791.17 5894.41,10792.41 5896.80,10793.10"/>
    </edge>
    <edge id=":191270_0" function="internal">
        <lane id=":191270_0_0" index="0" speed="27.78" length="0.31" shape="5512.60,4795.23 5512.54,4795.11 5512.49,4795.03 5512.45,4794.94 5512.40,4794.81"/>
        <lane id=":191270_0_1" index="1" speed="27.78" length="0.31" shape="5515.39,4793.66 5515.37,4793.62 5515.36,4793.60 5515.34,4793.57 5515.33,4793.52"/>
    </edge>
    <edge id=":191324_0" function="internal">
        <lane id=":191324_0_0" index="0" speed="22.22" length="0.13" shape="5942.22,5096.47 5942.02,5096.43"/>
        <lane id=":191324_0_1" index="1" speed="22.22" length="0.13" shape="5942.69,5093.30 5942.63,5093.29"/>
    </edge>
    <edge id=":195901_0" function="internal">
        <lane id=":195901_0_0" index="0" speed="25.00" length="0.44" shape="7425.19,5673.15 7425.01,5673.10 7424.88,5673.06 7424.76,5673.01 7424.58,5672.94"/>
        <lane id=":195901_0_1" index="1" speed="25.00" length="0.44" shape="7426.05,5670.07 7425.99,5670.05 7425.95,5670.04 7425.91,5670.02 7425.85,5670.00"/>
    </edge>
    <edge id=":20935_0" function="internal">
        <lane id=":20935_0_0" index="0" speed="33.33" length="7.99" shape="10404.62,3166.57 10407.26,3174.13"/>
        <lane id=":20935_0_1" index="1" speed="33.33" length="7.99" shape="10401.60,3167.64 10404.24,3175.18"/>
    </edge>
    <edge id=":21582_0" function="internal">
        <lane id=":21582_0_0" index="0" speed="25.00" length="7.36" shape="8070.27,10538.61 8068.59,10540.08 8067.41,10541.06 8066.19,10541.98 8064.37,10543.27"/>
        <lane id=":21582_0_1" index="1" speed="25.00" length="7.36" shape="8068.16,10536.20 8066.55,10537.61 8065.43,10538.54 8064.26,10539.42 8062.52,10540.66"/>
    </edge>
    <edge id=":21699_0" function="internal">
        <lane id=":21699_0_0" index="0" speed="25.00" length="7.59" shape="5955.13,10791.37 5962.92,10792.34"/>
        <lane id=":21699_0_1" index="1" speed="25.00" length="7.59" shape="5954.87,10794.56 5962.40,10795.49"/>
        <lane id=":21699_0_2" index="2" speed="25.00" length="7.59" shape="5954.60,10797.75 5961.87,10798.65"/>
    </edge>
    <edge id=":24433_0" function="internal">
        <lane id=":24433_0_0" index="0" speed="33.33" length="8.18" shape="9757.79,1855.57 9756.63,1853.41 9755.14,1852.31 9753.62,1851.22 9752.37,1849.09"/>
        <lane id=":24433_0_1" index="1" speed="33.33" length="8.18" shape="9757.79,1855.57 9755.40,1848.06"/>
        <lane id=":24433_0_2" index="2" speed="33.33" length="8.18" shape="9760.85,1854.66 9758.43,1847.03"/>
    </edge>
    <edge id=":254290_0" function="internal">
        <lane id=":254290_0_0" index="0" speed="18.05" length="27.29" shape="5366.48,4229.40 5366.08,4235.97 5365.64,4241.66 5365.73,4247.96 5366.89,4256.35"/>
        <lane id=":254290_0_1" index="1" speed="18.05" length="27.29" shape="5363.27,4229.53 5362.88,4236.13 5362.45,4241.93 5362.56,4248.38 5363.75,4256.94"/>
    </edge>
    <edge id=":254290_2" function="internal">
        <lane id=":254290_2_0" index="0" speed="25.00" length="27.30" shape="5359.53,4229.94 5363.75,4256.94"/>
        <lane id=":254290_2_1" index="1" speed="25.00" length="27.30" shape="5356.38,4230.59 5360.60,4257.54"/>
    </edge>
    <edge id=":262947_0" function="internal">
        <lane id=":262947_0_0" index="0" speed="25.00" length="0.10" shape="4541.70,5568.68 4541.70,5568.68"/>
        <lane id=":262947_0_1" index="1" speed="25.00" length="0.10" shape="4544.89,5568.55 4544.89,5568.56"/>
        <lane id=":262947_0_2" index="2" speed="25.00" length="0.10" shape="4548.09,5568.43 4548.09,5568.43"/>
    </edge>
    <edge id=":26372_0" function="internal">
        <lane id=":26372_0_0" index="0" speed="33.33" length="8.00" shape="9747.17,1823.87 9744.67,1816.30"/>
        <lane id=":26372_0_1" index="1" speed="33.33" length="8.00" shape="9750.22,1822.89 9747.70,1815.27"/>
    </edge>
    <edge id=":26483_0" function="internal">
        <lane id=":26483_0_0" index="0" speed="33.33" length="7.98" shape="9729.09,1707.19 9731.85,1714.70"/>
        <lane id=":26483_0_1" index="1" speed="33.33" length="7.98" shape="9726.09,1708.32 9728.84,1715.79"/>
    </edge>
    <edge id=":274177_0" function="internal">
        <lane id=":274177_0_0" index="0" speed="25.00" length="0.39" shape="4296.32,7295.70 4296.24,7295.95"/>
        <lane id=":274177_0_1" index="1" speed="25.00" length="0.39" shape="4293.30,7294.65 4293.18,7295.02"/>
        <lane id=":274177_0_2" index="2" speed="25.00" length="0.39" shape="4290.28,7293.60 4290.12,7294.09"/>
    </edge>
    <edge id=":2744_0" function="internal">
        <lane id=":2744_0_0" index="0" speed="18.05" length="72.57" shape="5421.54,4467.59 5423.59,4481.53 5428.08,4503.15 5433.14,4524.68 5436.87,4538.31"/>
        <lane id=":2744_0_1" index="1" speed="18.05" length="72.57" shape="5418.36,4468.36 5420.43,4482.34 5424.98,4504.05 5430.09,4525.67 5433.84,4539.35"/>
    </edge>
    <edge id=":2744_2" function="internal">
        <lane id=":2744_2_0" index="0" speed="25.00" length="72.48" shape="5414.83,4469.30 5436.87,4538.31"/>
        <lane id=":2744_2_1" index="1" speed="25.00" length="72.48" shape="5411.78,4470.27 5433.84,4539.35"/>
    </edge>
    <edge id=":276342_0" function="internal">
        <lane id=":276342_0_0" index="0" speed="26.39" length="0.45" shape="5360.63,3684.41 5360.66,3684.61 5360.67,3684.75 5360.67,3684.89 5360.67,3685.09"/>
        <lane id=":276342_0_1" index="1" speed="26.39" length="0.45" shape="5357.46,3684.80 5357.47,3684.86 5357.47,3684.91 5357.47,3684.96 5357.47,3685.02"/>
    </edge>
    <edge id=":27735_0" function="internal">
        <lane id=":27735_0_0" index="0" speed="25.00" length="0.43" shape="3764.80,8604.51 3764.88,8604.32 3764.93,8604.18 3764.99,8604.05 3765.08,8603.85"/>
        <lane id=":27735_0_1" index="1" speed="25.00" length="0.43" shape="3767.81,8605.61 3767.85,8605.49 3767.88,8605.41 3767.92,8605.33 3767.97,8605.21"/>
        <lane id=":27735_0_2" index="2" speed="25.00" length="0.43" shape="3770.82,8606.70 3770.83,8606.66 3770.84,8606.64 3770.85,8606.61 3770.87,8606.57"/>
    </edge>
    <edge id=":27763_0" function="internal">
        <lane id=":27763_0_0" index="0" speed="25.00" length="7.74" shape="7696.06,10548.46 7703.64,10550.75"/>