<?xml version="1.0" encoding="iso-8859-1"?>
<configuration xmlns:xsi="http://www.w3.org/2001/XMLSchema-instance" xsi:noNamespaceSchemaLocation="http://sumo.sf.net/xsd/sumoConfiguration.xsd">
    <input>
        <net-file value="../vci.net.xml"/>
        <route-files value="routes_toll_4_5.xml"/>
    </input>

    <time>
        <begin value="32400"/>
        <end value="39600"/>
        <step-length value ="1"/>
    </time>
    
    <output>
        <tripinfo-output value="tripinfo_toll_4_5.xml"/>
    </output>

    <report>
        <no-step-log value="true"/>
    </report>
</configuration>
